*HEADING
ABAQUS job created
**
*RESTART, WRITE, FREQUENCY=200, OVERLAY
*NODE
	1,	0.000,	0.000,	10.000
	2,	0.254,	0.000,	10.000
	3,	0.508,	0.000,	10.000
	4,	0.762,	0.000,	10.000
	5,	1.016,	0.000,	10.000
	6,	1.270,	0.000,	10.000
	7,	1.524,	0.000,	10.000
	8,	1.778,	0.000,	10.000
	9,	2.032,	0.000,	10.000
	10,	2.286,	0.000,	10.000
	11,	2.540,	0.000,	10.000
	12,	2.794,	0.000,	10.000
	13,	3.048,	0.000,	10.000
	14,	3.302,	0.000,	10.000
	15,	3.556,	0.000,	10.000
	16,	3.810,	0.000,	10.000
	17,	4.064,	0.000,	10.000
	18,	4.318,	0.000,	10.000
	19,	4.572,	0.000,	10.000
	20,	4.826,	0.000,	10.000
** ... 343 like lines cut
**
**
*ELEMENT, TYPE=PIPE31 , ELSET=PIPE
	1,	1,	2
	2,	2,	3
	3,	3,	4
	4,	4,	5
	5,	5,	6
	6,	6,	7
	7,	7,	8
	8,	8,	9
	9,	9,	10
	10,	10,	11
	11,	11,	12
	12,	12,	13
	13,	13,	14
	14,	14,	15
	15,	15,	16
	16,	16,	17
	17,	17,	18
	18,	18,	19
	19,	19,	20
	20,	20,	21
** ... 334 like lines cut
*ELEMENT, TYPE=SPRING2, ELSET=MOLA_EXTREMIDADE_INICIAL
	355,	1,	356
*ELEMENT, TYPE=SPRING2, ELSET=MOLA_EXTREMIDADE_FINAL
	356,	355,	357
**
**
** pipe
**
*NSET, NSET=PIPE, GENERATE
	1,	355,	1
**
** pipe
**
*ELSET, ELSET=PIPE_1, GENERATE
	1,	354,	1
**
** molas_extremidades
**
*NSET, NSET=MOLAS_EXTREMIDADES
	1,	355,	356,	357
**
** molas_extremidades
**
*ELSET, ELSET=MOLAS_EXTREMIDADES
	355,	356
**
**
** pipe
**
*BEAM SECTION, ELSET=PIPE, SECTION=PIPE, MATERIAL=PIPE_MATERIAL, POISSON=0.3
    0.13655,  0.0127,
    0.00,  0.00,  1.000
**
** spring
**
*ORIENTATION, SYSTEM=R, NAME=OID1
    1.00,  0.00,  0.00,  0.00,  1.00,  0.00
**
** Cortina de molas, se houver
**
**
**
** mola_extremidade_inicial
**
*SPRING, ELSET=MOLA_EXTREMIDADE_INICIAL, ORIENTATION=OID1, NONLINEAR
    1,  1
    -1000100000,  -10
    -1000000000,  -0.01
    0,  0
    1000000000,  0.01
    1000100000,  10
**
** mola_extremidade_final
**
*SPRING, ELSET=MOLA_EXTREMIDADE_FINAL, ORIENTATION=OID1, NONLINEAR
    1,  1
    -1000100000,  -10
    -1000000000,  -0.01
    0,  0
    1000000000,  0.01
    1000100000,  10
**
** pipe_material
**
*MATERIAL, NAME=PIPE_MATERIAL
**
*DENSITY
    14994.2,
**
*ELASTIC, TYPE=ISO
    207000000000.0,  0.3
**
*EXPANSION, TYPE=ISO, ZERO=0.
    1.17e-05,
**
*PLASTIC
    414000000.0,  0
**
*SURFACE, TYPE=CYLINDER, NAME=M_FUNDO
*INCLUDE, INPUT=bt_LD60.inp
*RIGID BODY, ANALYTICAL SURFACE=M_FUNDO, REF NODE=358
**
*SURFACE, TYPE=NODE, NAME=S_FUNDO
    1,
    2,
    3,
    4,
    5,
    6,
    7,
    8,
    9,
    10,
    11,
    12,
    13,
    14,
    15,
    16,
    17,
    18,
    19,
    20,
** ... 335 like lines cut

**
*CONTACT PAIR, INTERACTION=FUNDO, HCRIT=10000
    S_FUNDO, M_FUNDO
*SURFACE INTERACTION, NAME=FUNDO
1.00,
*SURFACE BEHAVIOR, PRESSURE-OVERCLOSURE=TABULAR
    0,  0
    100000,  1
*FRICTION, ANISOTROPIC, ELASTIC SLIP=0.001
    0.00,  0.8
**
** fundo_plano
**
*SURFACE, TYPE=CYLINDER, NAME=M_FUNDO_PLANO
0, 0, 0, 1, 0, 0
0, 1, 0
START,	-10,	10
LINE,	99.91600000000028,	10
*RIGID BODY, ANALYTICAL SURFACE=M_FUNDO_PLANO, REF NODE=363
*SURFACE, TYPE=NODE, NAME=S_FUNDO_PLANO
	1,
	2,
	3,
	4,
	5,
	6,
	7,
	8,
	9,
	10,
	11,
	12,
	13,
	14,
	15,
	16,
	17,
	18,
	19,
	20,
** ... 335 like lines cut
**
*CONTACT PAIR, INTERACTION=FUNDO_PLANO, HCRIT=10000, EXTENSION ZONE=0.2
S_FUNDO_PLANO, M_FUNDO_PLANO
*SURFACE INTERACTION, NAME=FUNDO_PLANO
1.00,
*SURFACE BEHAVIOR, PRESSURE-OVERCLOSURE=TABULAR
    0,  0
    100000,  0.1
*FRICTION, ANISOTROPIC, ELASTIC SLIP=0.001
0.00,	0.8
**
** Step  1, peso_vazio
** LoadCase, peso_vazio
**
*STEP, AMPLITUDE=RAMP, INC=10000, NLGEOM
*STATIC, STABILIZE=1e-08
	0.0001,	0.01,	1e-30,	0.01
**
*CONTROLS,ANALYSIS=DISCONTINUOUS
*CONTROLS, PARAMETERS=TIME INCREMENTATION
8, 12, , , , , , 15, , ,
0.5, , , , , ,1.5,
**
*CONTROLS, PARAMETERS=FIELD
0.005, 0.01, , , , , , 
**
**
*MODEL CHANGE, TYPE=ELEMENT, REMOVE
MOLA_EXTREMIDADE_INICIAL
MOLA_EXTREMIDADE_FINAL
**
*NSET, NSET=FIXA_NO_REF_FUNDO_INTEGRAL
    358,
*NSET, NSET=FIXA_NO_REF_FUNDO_FICTICIO
    363,
*NSET, NSET=FIXA_NO_PIPE_PONTA
    1,
**
*ELSET, ELSET=PESO_SUB_VAZIO, GENERATE
    1,  354,  1
**
**
**
**
**
**
** fixa_no_ref_fundo_integral
**
*BOUNDARY, OP=NEW
FIXA_NO_REF_FUNDO_INTEGRAL,  1,  ,  0.
FIXA_NO_REF_FUNDO_INTEGRAL,  2,  ,  0.
FIXA_NO_REF_FUNDO_INTEGRAL,  3,  ,  0.
FIXA_NO_REF_FUNDO_INTEGRAL,  4,  ,  0.
FIXA_NO_REF_FUNDO_INTEGRAL,  5,  ,  0.
FIXA_NO_REF_FUNDO_INTEGRAL,  6,  ,  0.
**
** FIXA_NO_REF_FUNDO_FICTICIO
**
*BOUNDARY, OP=NEW
FIXA_NO_REF_FUNDO_FICTICIO,  1,  ,  0.
FIXA_NO_REF_FUNDO_FICTICIO,  2,  ,  0.
FIXA_NO_REF_FUNDO_FICTICIO,  3,  ,  0.
FIXA_NO_REF_FUNDO_FICTICIO,  4,  ,  0.
FIXA_NO_REF_FUNDO_FICTICIO,  5,  ,  0.
FIXA_NO_REF_FUNDO_FICTICIO,  6,  ,  0.
**
** fixa_no_pipe_ponta
**
*BOUNDARY, OP=NEW
FIXA_NO_PIPE_PONTA,  1,  ,  0.
FIXA_NO_PIPE_PONTA,  2,  ,  0.
FIXA_NO_PIPE_PONTA,  4,  ,  0.
FIXA_NO_PIPE_PONTA,  6,  ,  0.
**
**
**
** peso_sub_vazio
**
*DLOAD, OP=NEW
PESO_SUB_VAZIO, GRAV,  1.34,  0.,  0.,  -1.
**
*CLOAD, OP=NEW
*TEMPERATURE, OP=NEW
**
**
**
*CONTACT CONTROLS,STABILIZE=1e-08, MASTER=M_FUNDO_PLANO, SLAVE=S_FUNDO_PLANO, LAGRANGE MULTIPLIER=YES
*CONTACT CONTROLS,STABILIZE=1e-08, MASTER=M_FUNDO, SLAVE=S_FUNDO, LAGRANGE MULTIPLIER=YES
**
**
**
**
**
*NODE PRINT, FREQ=5
U,
RF,
*NODE FILE, FREQ=5
U,
RF,
**
*EL PRINT, POS=INTEG, FREQ=5
S,
E,
ESF1,
SF,
*EL FILE, DIR=YES, POS=INTEG, FREQ=5
S,
E,
ESF1,
SF,
**
*EL PRINT, POS=NODES, FREQ=0
**
*EL FILE, DIR=YES, POS=NODES, FREQ=0
**
*EL PRINT, POS=CENTR, FREQ=0
**
*EL FILE, DIR=YES, POS=CENTR, FREQ=0
**
*EL PRINT, POS=AVERAGE, FREQ=0
**
*EL FILE, POS=AVERAGE, FREQ=0
**
*MODAL PRINT, FREQ=99999
**
*MODAL FILE, FREQ=99999
**
*ENERGY PRINT, FREQ=0
**
*ENERGY FILE, FREQ=0
**
*PRINT, FREQ=1, CONTACT=YES
**
*CONTACT PRINT, FREQ=5
*CONTACT FILE, FREQ=5
*OUTPUT, FIELD, FREQ=5
*CONTACT OUTPUT, VARIABLE=ALL
** NODE OUTPUT REQUESTS
**
*OUTPUT, FIELD, FREQ=5
*NODE OUTPUT
U,
RF,
**
** ELEMENT OUTPUT REQUESTS
**
*OUTPUT, FIELD, FREQ=5
*ELEMENT OUTPUT
S,
E,
ESF1,
SF,
** MODAL OUTPUT REQUESTS
** NONE
**
*END STEP
**
** Step  2, pressao_externa
** LoadCase, pressao_externa
**
*STEP, AMPLITUDE=RAMP, INC=10000, NLGEOM
*STATIC, STABILIZE=1e-08
	0.1,	2.1,	1e-30,	2.1
**
** peso_sub_vazio
**
*DLOAD, OP=NEW
PESO_SUB_VAZIO, GRAV,  1.34,  0.,  0.,  -1.
PIPE, PE, 2110881, 0.2785
**
*NODE PRINT, FREQ=5
U,
RF,
*NODE FILE, FREQ=5
U,
RF,
**
*EL PRINT, POS=INTEG, FREQ=5
S,
E,
ESF1,
SF,
*EL FILE, DIR=YES, POS=INTEG, FREQ=5
S,
E,
ESF1,
SF,
**
*EL PRINT, POS=NODES, FREQ=0
**
*EL FILE, DIR=YES, POS=NODES, FREQ=0
**
*EL PRINT, POS=CENTR, FREQ=0
**
*EL FILE, DIR=YES, POS=CENTR, FREQ=0
**
*EL PRINT, POS=AVERAGE, FREQ=0
**
*EL FILE, POS=AVERAGE, FREQ=0
**
*MODAL PRINT, FREQ=99999
**
*MODAL FILE, FREQ=99999
**
*ENERGY PRINT, FREQ=0
**
*ENERGY FILE, FREQ=0
**
*PRINT, FREQ=1, CONTACT=YES
**
*CONTACT PRINT, FREQ=5
*CONTACT FILE, FREQ=5
*OUTPUT, FIELD, FREQ=5
*CONTACT OUTPUT, VARIABLE=ALL
** NODE OUTPUT REQUESTS
**
*OUTPUT, FIELD, FREQ=5
*NODE OUTPUT
U,
RF,
**
** ELEMENT OUTPUT REQUESTS
**
*OUTPUT, FIELD, FREQ=5
*ELEMENT OUTPUT
S,
E,
ESF1,
SF,
** MODAL OUTPUT REQUESTS
** NONE
**
*END STEP
**
** Step  3, tracao_lancamento
** LoadCase, tracao_lancamento
**
*STEP, AMPLITUDE=RAMP, INC=10000, NLGEOM
*STATIC, STABILIZE=1e-08
	0.001,	0.01,	1e-30,	0.01
**
*NSET, NSET=TRACAO_LANCAMENTO
    355,
**
** tracao_lancamento
**
*CLOAD, OP=NEW
TRACAO_LANCAMENTO,  1,  60000
**
*NODE PRINT, FREQ=5
U,
RF,
*NODE FILE, FREQ=5
U,
RF,
**
*EL PRINT, POS=INTEG, FREQ=5
S,
E,
ESF1,
SF,
*EL FILE, DIR=YES, POS=INTEG, FREQ=5
S,
E,
ESF1,
SF,
**
*EL PRINT, POS=NODES, FREQ=0
**
*EL FILE, DIR=YES, POS=NODES, FREQ=0
**
*EL PRINT, POS=CENTR, FREQ=0
**
*EL FILE, DIR=YES, POS=CENTR, FREQ=0
**
*EL PRINT, POS=AVERAGE, FREQ=0
**
*EL FILE, POS=AVERAGE, FREQ=0
**
*MODAL PRINT, FREQ=99999
**
*MODAL FILE, FREQ=99999
**
*ENERGY PRINT, FREQ=0
**
*ENERGY FILE, FREQ=0
**
*PRINT, FREQ=1, CONTACT=YES
**
*CONTACT PRINT, FREQ=5
*CONTACT FILE, FREQ=5
*OUTPUT, FIELD, FREQ=5
*CONTACT OUTPUT, VARIABLE=ALL
** NODE OUTPUT REQUESTS
**
*OUTPUT, FIELD, FREQ=5
*NODE OUTPUT
U,
RF,
**
** ELEMENT OUTPUT REQUESTS
**
*OUTPUT, FIELD, FREQ=5
*ELEMENT OUTPUT
S,
E,
ESF1,
SF,
** MODAL OUTPUT REQUESTS
** NONE
**
*END STEP
**
** Step  4, assentamento
** LoadCase, assentamento
**
*STEP, AMPLITUDE=RAMP, INC=50000, NLGEOM
*STATIC, STABILIZE=1e-08
	0.0001,	0.01,	1e-30,	0.01
**
**
**
**
*NSET, NSET=DESLOCA_NO_REF_FUNDO_FICTICIO
    363,
**
**
** fixa_no_ref_fundo_integral
**
*BOUNDARY, OP=NEW
FIXA_NO_REF_FUNDO_INTEGRAL,  1,  ,  0.
FIXA_NO_REF_FUNDO_INTEGRAL,  2,  ,  0.
FIXA_NO_REF_FUNDO_INTEGRAL,  3,  ,  0.
FIXA_NO_REF_FUNDO_INTEGRAL,  4,  ,  0.
FIXA_NO_REF_FUNDO_INTEGRAL,  5,  ,  0.
FIXA_NO_REF_FUNDO_INTEGRAL,  6,  ,  0.
**
** DESLOCA_NO_REF_FUNDO_FICTICIO
**
*BOUNDARY, OP=NEW
DESLOCA_NO_REF_FUNDO_FICTICIO,  1,  ,  0.
DESLOCA_NO_REF_FUNDO_FICTICIO,  2,  ,  0.
DESLOCA_NO_REF_FUNDO_FICTICIO,  3,  ,  -170
DESLOCA_NO_REF_FUNDO_FICTICIO,  4,  ,  0.
DESLOCA_NO_REF_FUNDO_FICTICIO,  5,  ,  0.
DESLOCA_NO_REF_FUNDO_FICTICIO,  6,  ,  0.
**
** fixa_no_pipe_ponta
**
*BOUNDARY, OP=NEW
FIXA_NO_PIPE_PONTA,  1,  ,  0.
FIXA_NO_PIPE_PONTA,  2,  ,  0.
FIXA_NO_PIPE_PONTA,  4,  ,  0.
FIXA_NO_PIPE_PONTA,  6,  ,  0.
**
**
**
*NODE PRINT, FREQ=200
U,
RF,
*NODE FILE, FREQ=200
U,
RF,
**
*EL PRINT, POS=INTEG, FREQ=200
S,
E,
ESF1,
SF,
*EL FILE, DIR=YES, POS=INTEG, FREQ=200
S,
E,
ESF1,
SF,
**
*EL PRINT, POS=NODES, FREQ=0
**
*EL FILE, DIR=YES, POS=NODES, FREQ=0
**
*EL PRINT, POS=CENTR, FREQ=0
**
*EL FILE, DIR=YES, POS=CENTR, FREQ=0
**
*EL PRINT, POS=AVERAGE, FREQ=0
**
*EL FILE, POS=AVERAGE, FREQ=0
**
*MODAL PRINT, FREQ=99999
**
*MODAL FILE, FREQ=99999
**
*ENERGY PRINT, FREQ=0
**
*ENERGY FILE, FREQ=0
**
*PRINT, FREQ=1, CONTACT=YES
**
*CONTACT PRINT, FREQ=200
*CONTACT FILE, FREQ=200
*OUTPUT, FIELD, FREQ=200
*CONTACT OUTPUT, VARIABLE=ALL
** NODE OUTPUT REQUESTS
**
*OUTPUT, FIELD, FREQ=200
*NODE OUTPUT
U,
RF,
**
** ELEMENT OUTPUT REQUESTS
**
*OUTPUT, FIELD, FREQ=200
*ELEMENT OUTPUT
S,
E,
ESF1,
SF,
** MODAL OUTPUT REQUESTS
** NONE
**
*END STEP
**
** Step  5, restaura_atrito_axial
** LoadCase, restaura_atrito_axial
**
*STEP, AMPLITUDE=RAMP, INC=10000, NLGEOM
*STATIC, STABILIZE=1e-08
	0.0001,	0.01,	1e-30,	0.01
**
*CHANGE FRICTION, INTERACTION=FUNDO
*FRICTION, ANISOTROPIC, ELASTIC SLIP=0.001
    0.6,  0.8
**
*NODE PRINT, FREQ=5
U,
RF,
*NODE FILE, FREQ=5
U,
RF,
**
*EL PRINT, POS=INTEG, FREQ=5
S,
E,
ESF1,
SF,
*EL FILE, DIR=YES, POS=INTEG, FREQ=5
S,
E,
ESF1,
SF,
**
*EL PRINT, POS=NODES, FREQ=0
**
*EL FILE, DIR=YES, POS=NODES, FREQ=0
**
*EL PRINT, POS=CENTR, FREQ=0
**
*EL FILE, DIR=YES, POS=CENTR, FREQ=0
**
*EL PRINT, POS=AVERAGE, FREQ=0
**
*EL FILE, POS=AVERAGE, FREQ=0
**
*MODAL PRINT, FREQ=99999
**
*MODAL FILE, FREQ=99999
**
*ENERGY PRINT, FREQ=0
**
*ENERGY FILE, FREQ=0
**
*PRINT, FREQ=1, CONTACT=YES
**
*CONTACT PRINT, FREQ=5
*CONTACT FILE, FREQ=5
*OUTPUT, FIELD, FREQ=5
*CONTACT OUTPUT, VARIABLE=ALL
** NODE OUTPUT REQUESTS
**
*OUTPUT, FIELD, FREQ=5
*NODE OUTPUT
U,
RF,
**
** ELEMENT OUTPUT REQUESTS
**
*OUTPUT, FIELD, FREQ=5
*ELEMENT OUTPUT
S,
E,
ESF1,
SF,
** MODAL OUTPUT REQUESTS
** NONE
**
*END STEP
**
** Step  6, ativa_mola_extremidade
** LoadCase, ativa_mola_extremidade
**
*STEP, AMPLITUDE=RAMP, INC=10000, NLGEOM
*STATIC, STABILIZE=1e-08
	0.0001,	0.01,	1e-30,	0.01
**
*MODEL CHANGE, TYPE=ELEMENT, ADD=STRAIN FREE
MOLA_EXTREMIDADE_FINAL
**
*NODE PRINT, FREQ=5
U,
RF,
*NODE FILE, FREQ=5
U,
RF,
**
*EL PRINT, POS=INTEG, FREQ=5
S,
E,
ESF1,
SF,
*EL FILE, DIR=YES, POS=INTEG, FREQ=5
S,
E,
ESF1,
SF,
**
*EL PRINT, POS=NODES, FREQ=0
**
*EL FILE, DIR=YES, POS=NODES, FREQ=0
**
*EL PRINT, POS=CENTR, FREQ=0
**
*EL FILE, DIR=YES, POS=CENTR, FREQ=0
**
*EL PRINT, POS=AVERAGE, FREQ=0
**
*EL FILE, POS=AVERAGE, FREQ=0
**
*MODAL PRINT, FREQ=99999
**
*MODAL FILE, FREQ=99999
**
*ENERGY PRINT, FREQ=0
**
*ENERGY FILE, FREQ=0
**
*PRINT, FREQ=1, CONTACT=YES
**
*CONTACT PRINT, FREQ=5
*CONTACT FILE, FREQ=5
*OUTPUT, FIELD, FREQ=5
*CONTACT OUTPUT, VARIABLE=ALL
** NODE OUTPUT REQUESTS
**
*OUTPUT, FIELD, FREQ=5
*NODE OUTPUT
U,
RF,
**
** ELEMENT OUTPUT REQUESTS
**
*OUTPUT, FIELD, FREQ=5
*ELEMENT OUTPUT
S,
E,
ESF1,
SF,
** MODAL OUTPUT REQUESTS
** NONE
**
*END STEP
**
** Step  7, remove_tracao_lancamento
** LoadCase, remove_tracao_lancamento
**
*STEP, AMPLITUDE=RAMP, INC=10000, NLGEOM
*STATIC, STABILIZE=1e-08
	0.0001,	0.01,	1e-30,	0.01
**
**
**
**
*NSET, NSET=FIXO_MOLAS_EXTREMIDADES
    356,  357
**
** fixo_molas_extremidades
**
*BOUNDARY, OP=NEW
FIXO_MOLAS_EXTREMIDADES,  1,  ,  0.
FIXO_MOLAS_EXTREMIDADES,  2,  ,  0.
FIXO_MOLAS_EXTREMIDADES,  3,  ,  0.
**
** fixa_no_ref_fundo_integral
**
*BOUNDARY, OP=NEW
FIXA_NO_REF_FUNDO_INTEGRAL,  1,  ,  0.
FIXA_NO_REF_FUNDO_INTEGRAL,  2,  ,  0.
FIXA_NO_REF_FUNDO_INTEGRAL,  3,  ,  0.
FIXA_NO_REF_FUNDO_INTEGRAL,  4,  ,  0.
FIXA_NO_REF_FUNDO_INTEGRAL,  5,  ,  0.
FIXA_NO_REF_FUNDO_INTEGRAL,  6,  ,  0.
**
** DESLOCA_NO_REF_FUNDO_FICTICIO
**
*BOUNDARY, OP=NEW
DESLOCA_NO_REF_FUNDO_FICTICIO,  1,  ,  0.
DESLOCA_NO_REF_FUNDO_FICTICIO,  2,  ,  0.
DESLOCA_NO_REF_FUNDO_FICTICIO,  3,  ,  -170
DESLOCA_NO_REF_FUNDO_FICTICIO,  4,  ,  0.
DESLOCA_NO_REF_FUNDO_FICTICIO,  5,  ,  0.
DESLOCA_NO_REF_FUNDO_FICTICIO,  6,  ,  0.
**
** fixa_no_pipe_ponta
**
*BOUNDARY, OP=NEW
FIXA_NO_PIPE_PONTA,  1,  ,  0.
FIXA_NO_PIPE_PONTA,  2,  ,  0.
FIXA_NO_PIPE_PONTA,  4,  ,  0.
FIXA_NO_PIPE_PONTA,  6,  ,  0.
**
*CLOAD, OP=NEW
**
*NODE PRINT, FREQ=5
U,
RF,
*NODE FILE, FREQ=5
U,
RF,
**
*EL PRINT, POS=INTEG, FREQ=5
S,
E,
ESF1,
SF,
*EL FILE, DIR=YES, POS=INTEG, FREQ=5
S,
E,
ESF1,
SF,
**
*EL PRINT, POS=NODES, FREQ=0
**
*EL FILE, DIR=YES, POS=NODES, FREQ=0
**
*EL PRINT, POS=CENTR, FREQ=0
**
*EL FILE, DIR=YES, POS=CENTR, FREQ=0
**
*EL PRINT, POS=AVERAGE, FREQ=0
**
*EL FILE, POS=AVERAGE, FREQ=0
**
*MODAL PRINT, FREQ=99999
**
*MODAL FILE, FREQ=99999
**
*ENERGY PRINT, FREQ=0
**
*ENERGY FILE, FREQ=0
**
*PRINT, FREQ=1, CONTACT=YES
**
*CONTACT PRINT, FREQ=5
*CONTACT FILE, FREQ=5
*OUTPUT, FIELD, FREQ=5
*CONTACT OUTPUT, VARIABLE=ALL
** NODE OUTPUT REQUESTS
**
*OUTPUT, FIELD, FREQ=5
*NODE OUTPUT
U,
RF,
**
** ELEMENT OUTPUT REQUESTS
**
*OUTPUT, FIELD, FREQ=5
*ELEMENT OUTPUT
S,
E,
ESF1,
SF,
** MODAL OUTPUT REQUESTS
** NONE
**
*END STEP
**
** Step  8, teste_hidro
** LoadCase, teste_hidro
**
*STEP, AMPLITUDE=RAMP, INC=10000, NLGEOM
*STATIC, STABILIZE=1e-08
	0.1,	24.93,	1e-30,	5
**
*ELSET, ELSET=PESO_SUB_ALAGADO, GENERATE
    1,  354,  1
**
**
** peso_sub_alagado
**
*DLOAD, OP=NEW
PESO_SUB_ALAGADO, GRAV,  4.45,  0.,  0.,  -1.
PIPE, PE, 2110881, 0.2785
PIPE, PI, 24928504, 0.2477
**
*NODE PRINT, FREQ=5
U,
RF,
*NODE FILE, FREQ=5
U,
RF,
**
*EL PRINT, POS=INTEG, FREQ=5
S,
E,
ESF1,
SF,
*EL FILE, DIR=YES, POS=INTEG, FREQ=5
S,
E,
ESF1,
SF,
**
*EL PRINT, POS=NODES, FREQ=0
**
*EL FILE, DIR=YES, POS=NODES, FREQ=0
**
*EL PRINT, POS=CENTR, FREQ=0
**
*EL FILE, DIR=YES, POS=CENTR, FREQ=0
**
*EL PRINT, POS=AVERAGE, FREQ=0
**
*EL FILE, POS=AVERAGE, FREQ=0
**
*MODAL PRINT, FREQ=99999
**
*MODAL FILE, FREQ=99999
**
*ENERGY PRINT, FREQ=0
**
*ENERGY FILE, FREQ=0
**
*PRINT, FREQ=1, CONTACT=YES
**
*CONTACT PRINT, FREQ=5
*CONTACT FILE, FREQ=5
*OUTPUT, FIELD, FREQ=5
*CONTACT OUTPUT, VARIABLE=ALL
** NODE OUTPUT REQUESTS
**
*OUTPUT, FIELD, FREQ=5
*NODE OUTPUT
U,
RF,
**
** ELEMENT OUTPUT REQUESTS
**
*OUTPUT, FIELD, FREQ=5
*ELEMENT OUTPUT
S,
E,
ESF1,
SF,
** MODAL OUTPUT REQUESTS
** NONE
**
*END STEP
**
** Step  9, desalagamento
** LoadCase, desalagamento
**
*STEP, AMPLITUDE=RAMP, INC=10000, NLGEOM
*STATIC, STABILIZE=1e-08
	0.1,	24.93,	1e-30,	5
**
** peso_sub_vazio
**
*DLOAD, OP=NEW
PESO_SUB_VAZIO, GRAV,  1.34,  0.,  0.,  -1.
PIPE, PE, 2110881, 0.2785
**
*NODE PRINT, FREQ=5
U,
RF,
*NODE FILE, FREQ=5
U,
RF,
**
*EL PRINT, POS=INTEG, FREQ=5
S,
E,
ESF1,
SF,
*EL FILE, DIR=YES, POS=INTEG, FREQ=5
S,
E,
ESF1,
SF,
**
*EL PRINT, POS=NODES, FREQ=0
**
*EL FILE, DIR=YES, POS=NODES, FREQ=0
**
*EL PRINT, POS=CENTR, FREQ=0
**
*EL FILE, DIR=YES, POS=CENTR, FREQ=0
**
*EL PRINT, POS=AVERAGE, FREQ=0
**
*EL FILE, POS=AVERAGE, FREQ=0
**
*MODAL PRINT, FREQ=99999
**
*MODAL FILE, FREQ=99999
**
*ENERGY PRINT, FREQ=0
**
*ENERGY FILE, FREQ=0
**
*PRINT, FREQ=1, CONTACT=YES
**
*CONTACT PRINT, FREQ=5
*CONTACT FILE, FREQ=5
*OUTPUT, FIELD, FREQ=5
*CONTACT OUTPUT, VARIABLE=ALL
** NODE OUTPUT REQUESTS
**
*OUTPUT, FIELD, FREQ=5
*NODE OUTPUT
U,
RF,
**
** ELEMENT OUTPUT REQUESTS
**
*OUTPUT, FIELD, FREQ=5
*ELEMENT OUTPUT
S,
E,
ESF1,
SF,
** MODAL OUTPUT REQUESTS
** NONE
**
*END STEP
**
** Step 10, operacao_P
** LoadCase, Operacao_P
**
*STEP, AMPLITUDE=RAMP, INC=10000, NLGEOM
*STATIC, STABILIZE=1e-08
	0.1,	15.12,	1e-30,	5
**
*ELSET, ELSET=PESO_SUB_OPERACIONAL, GENERATE
    1,  354,  1
**
**
** peso_sub_operacional
**
*DLOAD, OP=NEW
PESO_SUB_OPERACIONAL, GRAV,  1.95,  0.,  0.,  -1.
PIPE, PE, 2110881, 0.2785
PIPE, PI, 15121854, 0.2477
**
*NODE PRINT, FREQ=5
U,
RF,
*NODE FILE, FREQ=5
U,
RF,
**
*EL PRINT, POS=INTEG, FREQ=5
S,
E,
ESF1,
SF,
*EL FILE, DIR=YES, POS=INTEG, FREQ=5
S,
E,
ESF1,
SF,
**
*EL PRINT, POS=NODES, FREQ=0
**
*EL FILE, DIR=YES, POS=NODES, FREQ=0
**
*EL PRINT, POS=CENTR, FREQ=0
**
*EL FILE, DIR=YES, POS=CENTR, FREQ=0
**
*EL PRINT, POS=AVERAGE, FREQ=0
**
*EL FILE, POS=AVERAGE, FREQ=0
**
*MODAL PRINT, FREQ=99999
**
*MODAL FILE, FREQ=99999
**
*ENERGY PRINT, FREQ=0
**
*ENERGY FILE, FREQ=0
**
*PRINT, FREQ=1, CONTACT=YES
**
*CONTACT PRINT, FREQ=5
*CONTACT FILE, FREQ=5
*OUTPUT, FIELD, FREQ=5
*CONTACT OUTPUT, VARIABLE=ALL
** NODE OUTPUT REQUESTS
**
*OUTPUT, FIELD, FREQ=5
*NODE OUTPUT
U,
RF,
**
** ELEMENT OUTPUT REQUESTS
**
*OUTPUT, FIELD, FREQ=5
*ELEMENT OUTPUT
S,
E,
ESF1,
SF,
** MODAL OUTPUT REQUESTS
** NONE
**
*END STEP
**
** Step 11, FREQ_P
** LoadCase, FREQ_P
**
*STEP, NLGEOM
*FREQUENCY, EIGENSOLVER=SUBSPACE
    20,  0.,  ,  ,  200
**
**
*NODE PRINT, FREQ=1
U,
*NODE FILE, FREQ=1
U,
**
*EL PRINT, POS=INTEG, FREQ=1
S,
E,
*EL FILE, DIR=YES, POS=INTEG, FREQ=1
S,
E,
**
*EL PRINT, POS=NODES, FREQ=0
**
*EL FILE, DIR=YES, POS=NODES, FREQ=0
**
*EL PRINT, POS=CENTR, FREQ=0
**
*EL FILE, DIR=YES, POS=CENTR, FREQ=0
**
*EL PRINT, POS=AVERAGE, FREQ=0
**
*EL FILE, POS=AVERAGE, FREQ=0
**
*MODAL PRINT, FREQ=99999
**
*MODAL FILE, FREQ=99999
**
*ENERGY PRINT, FREQ=0
**
*ENERGY FILE, FREQ=0
**
*PRINT, FREQ=1, CONTACT=YES
**
*CONTACT PRINT, FREQ=1
*CONTACT FILE, FREQ=1
*OUTPUT, FIELD, FREQ=1
*CONTACT OUTPUT, VARIABLE=ALL
** NODE OUTPUT REQUESTS
**
*OUTPUT, FIELD, FREQ=1
*NODE OUTPUT
U,
**
** ELEMENT OUTPUT REQUESTS
**
*OUTPUT, FIELD, FREQ=1
*ELEMENT OUTPUT
S,
E,
** MODAL OUTPUT REQUESTS
** NONE
**
*END STEP
**
